*Heading
** Job name: composelector_panel2 Model name: MasterModel
** Generated by: Abaqus/CAE 6.12-3
** modified one incomplete nodeset
** loading modified: now imposed angle
** many unused node and element sets eliminated
*Preprint, echo=NO, model=NO, history=NO, contact=NO
**
** PARTS
**
*Part, name=FRM_ifr2
*Node
      1,           0.,        -1.25,  -1.29999995
      2,           0.,        -1.25,   24.3999996
      3,   53.8378487,  -1.97599983,   24.3999996
      4,   53.8378487,  -1.97599983,  -1.29999995
      5,   113.785217,  -4.49494219,   24.3999996
      6,   113.785217,  -4.49494219,  -1.29999995
      7,   233.004868,   -14.892642,  -1.29999995
      8,   233.004868,   -14.892642,   24.3999996
      9,   410.285797,  -43.8602791,  -1.29999995
     10,   410.285797,  -43.8602791,   24.3999996
     11,   292.483215,  -22.7893715,   24.3999996
     12,   292.483215,  -22.7893715,  -1.29999995
     13,   969.491821,  -252.430374,   24.3999996
     14,   969.491821,  -252.430374,  -1.29999995
     15,   1026.51624,   -285.34671,  -1.29999995
     16,   1026.51624,   -285.34671,   24.3999996
     17,    468.81369,  -57.0708771,   24.3999996
     18,    468.81369,  -57.0708771,  -1.29999995
     19,   584.245667,  -88.6444321,  -1.29999995
     20,   584.245667,  -88.6444321,   24.3999996
** ... 7065 like lines cut
*Element, type=S4R
 1,   89,  963,   74,    1
 2,  963,  964,   73,   74
 3,  964,  965,   72,   73
 4,  965,  966,   71,   72
 5,  966,   84,    2,   71
 6,   90,  967,  963,   89
 7,  967,  968,  964,  963
 8,  968,  969,  965,  964
 9,  969,  970,  966,  965
10,  970,   83,   84,  966
11,   91,  971,  967,   90
12,  971,  972,  968,  967
13,  972,  973,  969,  968
14,  973,  974,  970,  969
15,  974,   82,   83,  970
16,   92,  975,  971,   91
17,  975,  976,  972,  971
18,  976,  977,  973,  972
19,  977,  978,  974,  973
20,  978,   81,   82,  974
** ... 6677 like lines cut
*Element, type=S3R
2043, 6131, 5413, 5579
2044, 6288, 6244, 2730
2045, 5801, 5465, 5391
2046, 3423, 6424, 2664
2047, 6980, 6317, 6339
2048, 6904, 5906, 5467
2049, 6276, 5868, 6093
2050, 5187, 4931, 3017
2051, 6820, 5904, 5511
2052, 6831, 6798, 5257
2053, 3357, 3869, 3867
2054, 3450,   63,  914
2055, 6649, 5226, 5520
2056, 5838, 6096, 5731
2057, 6204, 6227, 6978
2058, 6664, 4674, 2799
2059, 6278, 5957, 6254
2060, 6988, 6385, 6200
2061, 2884, 4610, 4897
2062, 5673, 5994, 6758
** ... 134 like lines cut
**
*Elset, elset=_Bottom_SNEG, internal
    1,    2,    3,    4,    5,    6,    7,    8,    9,   10,   11,   12,   13,   14,   15,   16
   17,   18,   19,   20,   21,   22,   23,   24,   25,   26,   27,   28,   29,   30,   31,   32
   33,   34,   35,   36,   37,   38,   39,   40,   41,   42,   43,   44,   45,   46,   47,   48
   49,   50,   51,   52,   53,   54,   55,   56,   57,   58,   59,   60,   61,   62,   63,   64
   65,   66,   67,   68,   69,   70,   71,   72,   73,   74,   75,   76,   77,   78,   79,   80
   81,   82,   83,   84,   85,   86,   87,   88,   89,   90,   91,   92,   93,   94,   95,   96
   97,   98,   99,  100,  101,  102,  103,  104,  105,  106,  107,  108,  109,  110,  111,  112
  113,  114,  115,  116,  117,  118,  119,  120,  121,  122,  123,  124,  125,  126,  127,  128
  129,  130,  131,  132,  133,  134,  135,  136,  137,  138,  139,  140,  141,  142,  143,  144
  145,  146,  147,  148,  149,  150,  151,  152,  153,  154,  155,  156,  157,  158,  159,  160
  161,  162,  163,  164,  165,  166,  167,  168,  169,  170,  171,  172,  173,  174,  175,  176
  177,  178,  179,  180,  181,  182,  183,  184,  185,  186,  187,  188,  189,  190,  191,  192
  193,  194,  195,  196,  197,  198,  199,  200,  201,  202,  203,  204,  205,  206,  207,  208
  209,  210,  211,  212,  213,  214,  215,  216,  217,  218,  219,  220,  221,  222,  223,  224
  225,  226,  227,  228,  229,  230,  231,  232,  233,  234,  235,  236,  237,  238,  239,  240
  241,  242,  243,  244,  245,  246,  247,  248,  249,  250,  251,  252,  253,  254,  255,  256
  257,  258,  259,  260,  261,  262,  263,  264,  265,  266,  267,  268,  269,  270,  271,  272
  273,  274,  275,  276,  277,  278,  279,  280,  281,  282,  283,  284,  285,  286,  287,  288
  289,  290,  291,  292,  293,  294,  295,  296,  297,  298,  299,  300,  301,  302,  303,  304
  305,  306,  307,  308,  309,  310,  311,  312,  313,  314,  315,  316,  317,  318,  319,  320
** ... 25 like lines cut
*Surface, type=ELEMENT, name=Bottom
_Bottom_SNEG, SNEG
**
*Nset, nset=s_Set-1, internal
  15,  16,  27,  28,  57, 223, 224, 225, 226, 558, 559, 560, 561, 562, 563, 881
 882, 883, 884, 885, 886, 887, 888, 889, 890, 891, 892, 893, 894, 895, 896
*Nset, nset=s_Set-3, internal
   1,   2,  25,  26,  56,  71,  72,  73,  74, 347, 348, 349, 350, 351, 352, 865
 866, 867, 868, 869, 870, 871, 872, 873, 874, 875, 876, 877, 878, 879, 880
**
*Orientation, name=Ori-1, system=CYLINDRICAL
          0., -1997.83500000001, -1.29999999999998,           0., -1997.83500000001, -2.29999999999998
3, 90.
** Region: (CompositeLayup-1-1: Generated From Layup), (Controls:EC-1)
*Elset, elset=CompositeLayup-1-1, generate
    1,  6851,     1
** Section: CompositeLayup-1-1
*Shell Section, elset=CompositeLayup-1-1, composite, orientation=Ori-1, controls=EC-1, layup=CompositeLayup-1
0.18, 3, Composite-material, 45., Ply-1
0.18, 3, Composite-material, -45., Ply-2
0.18, 3, Composite-material, 0., Ply-3
0.18, 3, Composite-material, 0., Ply-4
0.18, 3, Composite-material, 90., Ply-5
0.18, 3, Composite-material, 0., Ply-6
0.18, 3, Composite-material, 0., Ply-7
0.18, 3, Composite-material, 45., Ply-8
0.18, 3, Composite-material, -45., Ply-9
0.18, 3, Composite-material, 0., Ply-10
0.18, 3, Composite-material, 0., Ply-11
0.18, 3, Composite-material, 90., Ply-12
0.18, 3, Composite-material, 0., Ply-13
0.18, 3, Composite-material, 0., Ply-14
0.18, 3, Composite-material, -45., Ply-15
0.18, 3, Composite-material, 45., Ply-16
*End Part
**
**  
*Part, name=PNL_Panel
*Node
      1,   1948.34314,  -446.800018,        2520.
      2,   1948.34314,  -446.800018,           0.
      3,   1926.49854,  -533.174133,           0.
      4,   1926.49854,  -533.174133,        2520.
      5,   1954.71643,  -418.036926,           0.
      6,   1954.71643,  -418.036926,        2520.
      7,   1980.61536,  -269.877441,        2520.
      8,   1980.61536,  -269.877441,           0.
      9,   1984.37769,  -240.657944,           0.
     10,   1984.37769,  -240.657944,        2520.
     11,   1996.85547,  -90.7703476,        2520.
     12,   1996.85547,  -90.7703476,           0.
     13,   1997.97644,  -61.3309517,           0.
     14,   1997.97644,  -61.3309517,        2520.
     15,   1996.93201,   89.0715027,        2520.
     16,   1996.93201,   89.0715027,           0.
     17,   1995.40234,   118.492493,           0.
     18,   1995.40234,   118.492493,        2520.
     19,   1980.84424,   268.192352,        2520.
     20,   1980.84424,   268.192352,           0.
** ... 27557 like lines cut
*Element, type=S4R
   1,    1,   29, 3733,  546
   2,   29,   30, 3734, 3733
   3,   30,   31, 3735, 3734
   4,   31,   32, 3736, 3735
   5,   32,   33, 3737, 3736
   6,   33,   34, 3738, 3737
   7,   34,   35, 3739, 3738
   8,   35,   36, 3740, 3739
   9,   36,   37, 3741, 3740
  10,   37,   38, 3742, 3741
  11,   38,   39, 3743, 3742
  12,   39,   40, 3744, 3743
  13,   40,   41, 3745, 3744
  14,   41,   42, 3746, 3745
  15,   42,   43, 3747, 3746
  16,   43,   44, 3748, 3747
  17,   44,   45, 3749, 3748
  18,   45,   46, 3750, 3749
  19,   46,   47, 3751, 3750
  20,   47,   48, 3752, 3751
** ... 27196 like lines cut
**
*Nset, nset=Set-7, internal
    1,    4,    6,    7,   10,   11,   14,   15,   18,   19,   22,   23,   26,   27,  539,  540
  541,  542,  543,  544,  545,  546,  798,  799,  800,  801,  802,  803,  804,  805,  806,  807
  808,  809,  810,  811, 1079, 1080, 1332, 1333, 1334, 1335, 1336, 1337, 1338, 1339, 1340, 1341
 1342, 1343, 1344, 1345, 1613, 1614, 1866, 1867, 1868, 1869, 1870, 1871, 1872, 1873, 1874, 1875
 1876, 1877, 1878, 1879, 2147, 2148, 2400, 2401, 2402, 2403, 2404, 2405, 2406, 2407, 2408, 2409
 2410, 2411, 2412, 2413, 2681, 2682, 2934, 2935, 2936, 2937, 2938, 2939, 2940, 2941, 2942, 2943
 2944, 2945, 2946, 2947, 3215, 3216, 3468, 3469, 3470, 3471, 3472, 3731, 3732
*Nset, nset=Set-8, internal
    2,    3,    5,    8,    9,   12,   13,   16,   17,   20,   21,   24,   25,   28,  280,  281
  282,  283,  284,  285,  286,  287, 1063, 1064, 1065, 1066, 1067, 1068, 1069, 1070, 1071, 1072
 1073, 1074, 1075, 1076, 1077, 1078, 1597, 1598, 1599, 1600, 1601, 1602, 1603, 1604, 1605, 1606
 1607, 1608, 1609, 1610, 1611, 1612, 2131, 2132, 2133, 2134, 2135, 2136, 2137, 2138, 2139, 2140
 2141, 2142, 2143, 2144, 2145, 2146, 2665, 2666, 2667, 2668, 2669, 2670, 2671, 2672, 2673, 2674
 2675, 2676, 2677, 2678, 2679, 2680, 3199, 3200, 3201, 3202, 3203, 3204, 3205, 3206, 3207, 3208
 3209, 3210, 3211, 3212, 3213, 3214, 3724, 3725, 3726, 3727, 3728, 3729, 3730
**
*Elset, elset=_Inside_SPOS, internal, generate
     1,  27216,      1
*Surface, type=ELEMENT, name=Inside
_Inside_SPOS, SPOS
*Elset, elset=_FP_STR_1_SPOS, internal, generate
 26461,  27216,      1
*Elset, elset=_FP_STR_2_SPOS, internal, generate
 24193,  24948,      1
*Elset, elset=_FP_STR_3_SPOS, internal, generate
 19657,  20412,      1
*Elset, elset=_FP_STR_4_SPOS, internal, generate
 15121,  15876,      1
*Elset, elset=_FP_STR_5_SPOS, internal, generate
 10585,  11340,      1
*Elset, elset=_FP_STR_6_SPOS, internal, generate
 6049,  6804,     1
**
*Nset, nset=s_Set-1, internal
   3,   4, 288, 289, 290, 291, 292, 293, 294, 295, 296, 297, 298, 299, 300, 301
 302, 303, 304, 305, 306, 307, 308, 309, 310, 311, 312, 313, 314, 315, 316, 317
 318, 319, 320, 321, 322, 323, 324, 325, 326, 327, 328, 329, 330, 331, 332, 333
 334, 335, 336, 337, 338, 339, 340, 341, 342, 343, 344, 345, 346, 347, 348, 349
 350, 351, 352, 353, 354, 355, 356, 357, 358, 359, 360, 361, 362, 363, 364, 365
 366, 367, 368, 369, 370, 371, 372, 373, 374, 375, 376, 377, 378, 379, 380, 381
 382, 383, 384, 385, 386, 387, 388, 389, 390, 391, 392, 393, 394, 395, 396, 397
 398, 399, 400, 401, 402, 403, 404, 405, 406, 407, 408, 409, 410, 411, 412, 413
 414, 415, 416, 417, 418, 419, 420, 421, 422, 423, 424, 425, 426, 427, 428, 429
 430, 431, 432, 433, 434, 435, 436, 437, 438, 439, 440, 441, 442, 443, 444, 445
 446, 447, 448, 449, 450, 451, 452, 453, 454, 455, 456, 457, 458, 459, 460, 461
 462, 463, 464, 465, 466, 467, 468, 469, 470, 471, 472, 473, 474, 475, 476, 477
 478, 479, 480, 481, 482, 483, 484, 485, 486, 487, 488, 489, 490, 491, 492, 493
 494, 495, 496, 497, 498, 499, 500, 501, 502, 503, 504, 505, 506, 507, 508, 509
 510, 511, 512, 513, 514, 515, 516, 517, 518, 519, 520, 521, 522, 523, 524, 525
 526, 527, 528, 529, 530, 531, 532, 533, 534, 535, 536, 537, 538
*Nset, nset=s_Set-3, internal
   27,   28, 3473, 3474, 3475, 3476, 3477, 3478, 3479, 3480, 3481, 3482, 3483, 3484, 3485, 3486
 3487, 3488, 3489, 3490, 3491, 3492, 3493, 3494, 3495, 3496, 3497, 3498, 3499, 3500, 3501, 3502
 3503, 3504, 3505, 3506, 3507, 3508, 3509, 3510, 3511, 3512, 3513, 3514, 3515, 3516, 3517, 3518
 3519, 3520, 3521, 3522, 3523, 3524, 3525, 3526, 3527, 3528, 3529, 3530, 3531, 3532, 3533, 3534
 3535, 3536, 3537, 3538, 3539, 3540, 3541, 3542, 3543, 3544, 3545, 3546, 3547, 3548, 3549, 3550
 3551, 3552, 3553, 3554, 3555, 3556, 3557, 3558, 3559, 3560, 3561, 3562, 3563, 3564, 3565, 3566
 3567, 3568, 3569, 3570, 3571, 3572, 3573, 3574, 3575, 3576, 3577, 3578, 3579, 3580, 3581, 3582
 3583, 3584, 3585, 3586, 3587, 3588, 3589, 3590, 3591, 3592, 3593, 3594, 3595, 3596, 3597, 3598
 3599, 3600, 3601, 3602, 3603, 3604, 3605, 3606, 3607, 3608, 3609, 3610, 3611, 3612, 3613, 3614
 3615, 3616, 3617, 3618, 3619, 3620, 3621, 3622, 3623, 3624, 3625, 3626, 3627, 3628, 3629, 3630
 3631, 3632, 3633, 3634, 3635, 3636, 3637, 3638, 3639, 3640, 3641, 3642, 3643, 3644, 3645, 3646
 3647, 3648, 3649, 3650, 3651, 3652, 3653, 3654, 3655, 3656, 3657, 3658, 3659, 3660, 3661, 3662
 3663, 3664, 3665, 3666, 3667, 3668, 3669, 3670, 3671, 3672, 3673, 3674, 3675, 3676, 3677, 3678
 3679, 3680, 3681, 3682, 3683, 3684, 3685, 3686, 3687, 3688, 3689, 3690, 3691, 3692, 3693, 3694
 3695, 3696, 3697, 3698, 3699, 3700, 3701, 3702, 3703, 3704, 3705, 3706, 3707, 3708, 3709, 3710
 3711, 3712, 3713, 3714, 3715, 3716, 3717, 3718, 3719, 3720, 3721, 3722, 3723
**
*Orientation, name=Ori-2
          0.,           0.,           1.,           0.,           1.,           0.
3, 0.
** Region: (CompositeLayup-1-1: Generated From Layup), (Controls:EC-1)
*Elset, elset=CompositeLayup-1-1, generate
     1,  27216,      1
** Section: CompositeLayup-1-1
*Shell Section, elset=CompositeLayup-1-1, composite, orientation=Ori-2, controls=EC-1, layup=CompositeLayup-1
0.18, 3, Composite-material, -45., Ply-1
0.18, 3, Composite-material, 90., Ply-2
0.18, 3, Composite-material, 0., Ply-3
0.18, 3, Composite-material, 90., Ply-4
0.18, 3, Composite-material, 0., Ply-5
0.18, 3, Composite-material, 45., Ply-6
0.18, 3, Composite-material, 45., Ply-7
0.18, 3, Composite-material, 0., Ply-8
0.18, 3, Composite-material, 90., Ply-9
0.18, 3, Composite-material, 0., Ply-10
0.18, 3, Composite-material, 90., Ply-11
0.18, 3, Composite-material, -45., Ply-12
*End Part
**  
*Part, name=STR_Z-stringer
*Node
      1,         -20.,        24.25,        2520.
      2,        -0.75,        24.25,        2520.
      3,        -0.75,        24.25,           0.
      4,         -20.,        24.25,           0.
      5,        -0.75,         0.75,        2520.
      6,        -0.75,         0.75,           0.
      7,         28.5,         0.75,        2520.
      8,         28.5,         0.75,           0.
      9,      -10.375,        24.25,        2520.
     10,        -0.75,        24.25,        2510.
     11,        -0.75,        24.25,        2500.
     12,        -0.75,        24.25,        2490.
     13,        -0.75,        24.25,        2480.
     14,        -0.75,        24.25,        2470.
     15,        -0.75,        24.25,        2460.
     16,        -0.75,        24.25,        2450.
     17,        -0.75,        24.25,        2440.
     18,        -0.75,        24.25,        2430.
     19,        -0.75,        24.25,        2420.
     20,        -0.75,        24.25,        2410.
** ... 2004 like lines cut
*Element, type=S4R
  1,    1,    9, 1021,  512
  2,    9,    2,   10, 1021
  3,  512, 1021, 1022,  511
  4, 1021,   10,   11, 1022
  5,  511, 1022, 1023,  510
  6, 1022,   11,   12, 1023
  7,  510, 1023, 1024,  509
  8, 1023,   12,   13, 1024
  9,  509, 1024, 1025,  508
 10, 1024,   13,   14, 1025
 11,  508, 1025, 1026,  507
 12, 1025,   14,   15, 1026
 13,  507, 1026, 1027,  506
 14, 1026,   15,   16, 1027
 15,  506, 1027, 1028,  505
 16, 1027,   16,   17, 1028
 17,  505, 1028, 1029,  504
 18, 1028,   17,   18, 1029
 19,  504, 1029, 1030,  503
 20, 1029,   18,   19, 1030
** ... 1744 like lines cut
**
*Nset, nset=Set-7, internal
   1,   2,   5,   7,   9, 513, 766, 767
*Nset, nset=Set-8, internal
    3,    4,    6,    8,  261,  765, 1019, 1020
**
*Elset, elset=_Bottom_SNEG, internal, generate
 1009,  1764,     1
*Surface, type=ELEMENT, name=Bottom
_Bottom_SNEG, SNEG
**
*Orientation, name=Ori-2
          0.,           0.,           1.,           0.,           1.,           0.
3, 0.
** Region: (CompositeLayup-1-1: Generated From Layup), (Controls:EC-1)
*Elset, elset=CompositeLayup-1-1, generate
    1,  1764,     1
** Section: CompositeLayup-1-1
*Shell Section, elset=CompositeLayup-1-1, composite, orientation=Ori-2, controls=EC-1, layup=CompositeLayup-1
0.18, 3, Composite-material, -45., Ply-1
0.18, 3, Composite-material, 90., Ply-2
0.18, 3, Composite-material, 0., Ply-3
0.18, 3, Composite-material, 90., Ply-4
0.18, 3, Composite-material, 0., Ply-5
0.18, 3, Composite-material, 45., Ply-6
0.18, 3, Composite-material, 45., Ply-7
0.18, 3, Composite-material, 0., Ply-8
0.18, 3, Composite-material, 90., Ply-9
0.18, 3, Composite-material, 0., Ply-10
0.18, 3, Composite-material, 90., Ply-11
0.18, 3, Composite-material, -45., Ply-12
*End Part
**  
**
** ASSEMBLY
**
*Assembly, name=Assembly
**  
*Instance, name=Panel, part=PNL_Panel
*End Instance
**  
*Instance, name=STR_1, part=STR_Z-stringer
1947.47257018818, 445.728505471273,           0.
1947.47257018818, 445.728505471273,           0., 1947.47257018818, 445.728505471273,           1., 103.289473179061
*End Instance
**  
*Instance, name=STR_2, part=STR_Z-stringer
1979.65206015276, 268.888513994031,           0.
1979.65206015276, 268.888513994031,           0., 1979.65206015276, 268.888513994031,           1., 98.1328523057565
*End Instance
**  
*Instance, name=STR_3, part=STR_Z-stringer
1995.80718925576, 89.8719953045052,           0.
1995.80718925576, 89.8719953045052,           0., 1995.80718925576, 89.8719953045052,           1., 92.9762342900257
*End Instance
**  
*Instance, name=STR_4, part=STR_Z-stringer
1995.80718925576, -89.8719953045051,           0.
1995.80718925576, -89.8719953045051,           0., 1995.80718925576, -89.8719953045051,           1., 87.8196139017887
*End Instance
**  
*Instance, name=STR_5, part=STR_Z-stringer
1979.65206015276, -268.888513994031,           0.
1979.65206015276, -268.888513994031,           0., 1979.65206015276, -268.888513994031,           1., 82.6629938971331
*End Instance
**  
*Instance, name=STR_6, part=STR_Z-stringer
1947.47257018818, -445.728505471273,           0.
1947.47257018818, -445.728505471273,           0., 1947.47257018818, -445.728505471273,           1., 77.5063748552675
*End Instance
**  
*Instance, name=FRM_1, part=FRM_ifr2
1925.45522874115, 532.885399817231,        2205.
1925.45522874115, 532.885399817231,        2205., 1925.45522874115, 532.885399817231,        2204., 74.5301391466045
*End Instance
**  
*Instance, name=FRM_2, part=FRM_ifr2
1925.45522874115, 532.885399817231,        1575.
1925.45522874115, 532.885399817231,        1575., 1925.45522874115, 532.885399817231,        1574., 74.5301391466045
*End Instance
**  
*Instance, name=FRM_3, part=FRM_ifr2
1925.45522874115, 532.885399817231,         945.
1925.45522874115, 532.885399817231,         945., 1925.45522874115, 532.885399817231,         944., 74.5301391466045
*End Instance
**  
*Instance, name=FRM_4, part=FRM_ifr2
1925.45522874115, 532.885399817231,         315.
1925.45522874115, 532.885399817231,         315., 1925.45522874115, 532.885399817231,         314., 74.5301391466045
*End Instance
**  
*Nset, nset=s_Set-1
Panel.s_Set-1
FRM_1.s_Set-1
FRM_2.s_Set-1
FRM_3.s_Set-1
FRM_4.s_Set-1
**
*Nset, nset=s_Set-3
Panel.s_Set-3
FRM_1.s_Set-3
FRM_2.s_Set-3
FRM_3.s_Set-3
FRM_4.s_Set-3
**
*Nset, nset=Set-7
Panel.Set-7
STR_1.Set-7
STR_2.Set-7
STR_3.Set-7
STR_4.Set-7
STR_5.Set-7
STR_6.Set-7
**
*Nset, nset=Set-8
Panel.Set-8
STR_1.Set-8
STR_2.Set-8
STR_3.Set-8
STR_4.Set-8
STR_5.Set-8
STR_6.Set-8
**
*Surface, type=ELEMENT, name=Panel_To_STR&Tie
Panel._FP_STR_1_SPOS, SPOS
Panel._FP_STR_2_SPOS, SPOS
Panel._FP_STR_3_SPOS, SPOS
Panel._FP_STR_4_SPOS, SPOS
Panel._FP_STR_5_SPOS, SPOS
Panel._FP_STR_6_SPOS, SPOS
**
** Constraint: TIE_FRM@Panel@P
*Tie, name=TIE_FRM@Panel@P, adjust=yes, type=SURFACE TO SURFACE
FRM_1.Bottom, Panel.Inside
FRM_2.Bottom, Panel.Inside
FRM_3.Bottom, Panel.Inside
FRM_4.Bottom, Panel.Inside
**
** Constraint: TIE_STR@Panel@P
*Tie, name=TIE_STR@Panel@P, adjust=yes, type=SURFACE TO SURFACE
STR_1.Bottom, Panel_To_STR&Tie
STR_2.Bottom, Panel_To_STR&Tie
STR_3.Bottom, Panel_To_STR&Tie
STR_4.Bottom, Panel_To_STR&Tie
STR_5.Bottom, Panel_To_STR&Tie
STR_6.Bottom, Panel_To_STR&Tie
*End Assembly
** 
** ELEMENT CONTROLS
** 
*Section Controls, name=EC-1, hourglass=ENHANCED
1., 1., 1.
** 
** MATERIALS
*Material, name=Composite-material
*Density
 1.58e-09,
***Elastic, type=ENGINEERING CONSTANTS
**100000., 6000, 6000,    0.35,    0.35,    0.35, 3000, 3000
** 3000,
*Include, input=composite_material_1.inp
** 
** BOUNDARY CONDITIONS
** 
** Name: BC-1 Type: Displacement/Rotation
*Boundary
s_Set-1, 1, 1
s_Set-1, 2, 2
s_Set-1, 3, 3
s_Set-1, 4, 4
s_Set-1, 5, 5
** Name: BC-2 Type: Displacement/Rotation
*Boundary
s_Set-3, 1, 1
s_Set-3, 3, 3
s_Set-3, 4, 4
s_Set-3, 5, 5
** Name: BC-3 Type: Displacement/Rotation
*Boundary
Set-7, 3, 3
Set-7, 4, 4
Set-7, 5, 5
** Name: BC-4 Type: Displacement/Rotation
*Boundary
Set-8, 3, 3
Set-8, 4, 4
Set-8, 5, 5
** ----------------------------------------------------------------
** 
** STEP: LoadStep
** 
*STEP
*BUCKLE, EIGENSOLVER=SUBSPACE
 30,,,500
**Data line to request the desired number of symmetric modes
** LOADS
** 
** Name: Load   Type: Rotation
*BOUNDARY
s_Set-1, 6, 6, 1.0
s_Set-3, 6, 6, -1.0
** 
***Output, field
***Element Output, position = integration points
**IVOL
**
*MODAL FILE
*END STEP
**
